LAMMPS (23 Jun 2022 - Update 1)
# 3d Lennard-Jones melt
variable        x index 5
variable        y index 5
variable        z index 10
variable        t index 1000

variable        xx equal 1*$x
variable        xx equal 1*5
variable        yy equal 1*$y
variable        yy equal 1*5
variable        zz equal 1*$z
variable        zz equal 1*10

variable        interval index 50

units           lj
atom_style      atomic

lattice         fcc 0.8442
Lattice spacing in x,y,z = 1.6795962 1.6795962 1.6795962
region          box block 0 5 0 5 0 10
create_box      1 box
Created orthogonal box = (0 0 0) to (8.397981 8.397981 16.795962)
create_atoms    1 box
Created 1000 atoms
mass            1 1.0

velocity        all create 1.44 87287 loop geom

pair_style      lj/cut 2.5
pair_coeff      1 1 1.0 1.0 2.5

neighbor        0.3 bin
neigh_modify    delay 0 every 20 check yes

fix             1 all nve

thermo          50
thermo_style custom step time  temp press pe ke etotal density
run             $t
run             1000
Generated 0 of 0 mixed pair_coeff terms from geometric mixing rule
  update every 20 steps, delay 0 steps, check yes
Step          Time           Temp          Press          PotEng         KinEng         TotEng        Density
0   0              1.44          -5.0208849     -6.7733681      2.15784       -4.6155281      0.8442
Averages over the last 11 of 21 rows, steps 500 to 1000:
Temp Press PotEng KinEng TotEng Density
0.723671 0.526833 -5.70821 1.08442 -4.62379 0.8442
Loop time of 0.107657 on 16 procs for 1000 steps with 1000 atoms
